tests/main/reference/phase_shifter/outputIIDM.xml
<?xml version="1.0" encoding="UTF-8"?>
<iidm:network xmlns:iidm="http://www.powsybl.org/schema/iidm/1_4" id="ieee14bus" caseDate="2017-06-09T10:14:24.146000+02:00" forecastDistance="0" sourceFormat="CIM1">
    <iidm:substation id="_BUS___10_SS" name="BUS   10_SS" country="AF">
        <iidm:voltageLevel id="_BUS___10_VL" name="BUS   10_VL" nominalV="400" topologyKind="BUS_BREAKER">
            <iidm:busBreakerTopology>
                <iidm:bus id="_BUS___10_TN" v="402.82078645621738" angle="1.2988706565492731e-49"/>
            </iidm:busBreakerTopology>
            <iidm:load id="_Load__10" name="LOAD  10" loadType="UNDEFINED" p0="100" q0="0" bus="_BUS___10_TN" connectableBus="_BUS___10_TN" p="99.997079169577191" q="0"/>
        </iidm:voltageLevel>
    </iidm:substation>
    <iidm:substation id="_BUS____1_SS" name="BUS    1_SS" country="AF">
        <iidm:voltageLevel id="_BUS____1_VL" name="BUS    1_VL" nominalV="69" topologyKind="BUS_BREAKER">
            <iidm:busBreakerTopology>
                <iidm:bus id="_BUS____1_TN" v="73.140003936142804" angle="12.644168876941293"/>
            </iidm:busBreakerTopology>
            <iidm:generator id="_Generator___1" name="GEN    1" energySource="OTHER" minP="-9999" maxP="9999" voltageRegulatorOn="true" targetP="100" targetV="73.140000000000001" targetQ="0" bus="_BUS____1_TN" connectableBus="_BUS____1_TN" p="-105.57652056694195" q="-18.227351247485238">
                <iidm:minMaxReactiveLimits minQ="-999" maxQ="999"/>
            </iidm:generator>
        </iidm:voltageLevel>
    </iidm:substation>
    <iidm:substation id="_BUS____5_SS" name="BUS    5_SS" country="AF">
        <iidm:voltageLevel id="_BUS____6_VL" name="BUS    6_VL" nominalV="400" topologyKind="BUS_BREAKER">
            <iidm:busBreakerTopology>
                <iidm:bus id="_BUS____6_TN" v="402.85305052773487" angle="0.088917381788765334"/>
                <iidm:bus id="_BUS____7_TN" v="402.85469187500951" angle="0.09892392755566641"/>
                <iidm:bus id="_BUS____8_TN" v="402.85072369753755" angle="0.082610705727508699"/>
            </iidm:busBreakerTopology>
        </iidm:voltageLevel>
        <iidm:voltageLevel id="_BUS____5_VL" name="BUS    5_VL" nominalV="69" topologyKind="BUS_BREAKER">
            <iidm:busBreakerTopology>
                <iidm:bus id="_BUS____5_TN" v="67.963662683765349" angle="0.24783691754893827"/>
            </iidm:busBreakerTopology>
        </iidm:voltageLevel>
        <iidm:twoWindingsTransformer id="_BUS____5-BUS____6-1_PS" name="BUS    5-BUS    6-1" r="0" x="10" g="0" b="0" ratedU1="69" ratedU2="400" bus1="_BUS____5_TN" connectableBus1="_BUS____5_TN" voltageLevelId1="_BUS____5_VL" bus2="_BUS____6_TN" connectableBus2="_BUS____6_TN" voltageLevelId2="_BUS____6_VL" p1="25.186615998197421" q1="0.099056433786157999" p2="-25.186615998197421" q2="-0.059967953094052028">
            <iidm:phaseTapChanger lowTapPosition="1" tapPosition="16" targetDeadband="0" regulationMode="CURRENT_LIMITER" regulationValue="770" regulating="true">
                <iidm:terminalRef id="_BUS____5-BUS____6-1_PS" side="ONE"/>
                <iidm:step r="0" x="0" g="0" b="0" rho="1.0224948" alpha="0.29999999999999999"/>
                <iidm:step r="0" x="0" g="0" b="0" rho="1.0224948" alpha="0.27500000000000002"/>
                <iidm:step r="0" x="0" g="0" b="0" rho="1.0224948" alpha="0.25"/>
                <iidm:step r="0" x="0" g="0" b="0" rho="1.0224948" alpha="0.22500000000000001"/>
                <iidm:step r="0" x="0" g="0" b="0" rho="1.0224948" alpha="0.20000000000000001"/>
                <iidm:step r="0" x="0" g="0" b="0" rho="1.0224948" alpha="0.17499999999999999"/>
                <iidm:step r="0" x="0" g="0" b="0" rho="1.0224948" alpha="0.14999999999999999"/>
                <iidm:step r="0" x="0" g="0" b="0" rho="1.0224948" alpha="0.125"/>
                <iidm:step r="0" x="0" g="0" b="0" rho="1.0224948" alpha="0.10000000000000001"/>
                <iidm:step r="0" x="0" g="0" b="0" rho="1.0224948" alpha="0.070000000000000007"/>
                <iidm:step r="0" x="0" g="0" b="0" rho="1.0224948" alpha="0.040000000000000001"/>
                <iidm:step r="0" x="0" g="0" b="0" rho="1.0224948" alpha="0.02"/>
                <iidm:step r="0" x="0" g="0" b="0" rho="1.0224948" alpha="0"/>
                <iidm:step r="0" x="0" g="0" b="0" rho="1.0224948" alpha="-0.02"/>
                <iidm:step r="0" x="0" g="0" b="0" rho="1.0224948" alpha="-0.040000000000000001"/>
                <iidm:step r="0" x="0" g="0" b="0" rho="1.0224948" alpha="-0.070000000000000007"/>
                <iidm:step r="0" x="0" g="0" b="0" rho="1.0224948" alpha="-0.10000000000000001"/>
                <iidm:step r="0" x="0" g="0" b="0" rho="1.0224948" alpha="-0.125"/>
                <iidm:step r="0" x="0" g="0" b="0" rho="1.0224948" alpha="-0.14999999999999999"/>
                <iidm:step r="0" x="0" g="0" b="0" rho="1.0224948" alpha="-0.17499999999999999"/>
                <iidm:step r="0" x="0" g="0" b="0" rho="1.0224948" alpha="-0.20000000000000001"/>
                <iidm:step r="0" x="0" g="0" b="0" rho="1.0224948" alpha="-0.22500000000000001"/>
                <iidm:step r="0" x="0" g="0" b="0" rho="1.0224948" alpha="-0.25"/>
                <iidm:step r="0" x="0" g="0" b="0" rho="1.0224948" alpha="-0.27500000000000002"/>
                <iidm:step r="0" x="0" g="0" b="0" rho="1.0224948" alpha="-0.29999999999999999"/>
            </iidm:phaseTapChanger>
        </iidm:twoWindingsTransformer>
        <iidm:twoWindingsTransformer id="_BUS____5-BUS____7-2_PS" name="BUS    5-BUS    7-2" r="0" x="10" g="0" b="0" ratedU1="69" ratedU2="400" bus1="_BUS____5_TN" connectableBus1="_BUS____5_TN" voltageLevelId1="_BUS____5_VL" bus2="_BUS____7_TN" connectableBus2="_BUS____7_TN" voltageLevelId2="_BUS____6_VL" p1="28.017391091089255" q1="0.037573909107993013" p2="-28.017391091089266" q2="0.010794142940131568">
            <iidm:phaseTapChanger lowTapPosition="1" tapPosition="15" targetDeadband="0" regulationMode="CURRENT_LIMITER" regulationValue="770" regulating="true">
                <iidm:terminalRef id="_BUS____5-BUS____6-1_PS" side="ONE"/>
                <iidm:step r="0" x="0" g="0" b="0" rho="1.0224948" alpha="0.29999999999999999"/>
                <iidm:step r="0" x="0" g="0" b="0" rho="1.0224948" alpha="0.27500000000000002"/>
                <iidm:step r="0" x="0" g="0" b="0" rho="1.0224948" alpha="0.25"/>
                <iidm:step r="0" x="0" g="0" b="0" rho="1.0224948" alpha="0.22500000000000001"/>
                <iidm:step r="0" x="0" g="0" b="0" rho="1.0224948" alpha="0.20000000000000001"/>
                <iidm:step r="0" x="0" g="0" b="0" rho="1.0224948" alpha="0.17499999999999999"/>
                <iidm:step r="0" x="0" g="0" b="0" rho="1.0224948" alpha="0.14999999999999999"/>
                <iidm:step r="0" x="0" g="0" b="0" rho="1.0224948" alpha="0.125"/>
                <iidm:step r="0" x="0" g="0" b="0" rho="1.0224948" alpha="0.10000000000000001"/>
                <iidm:step r="0" x="0" g="0" b="0" rho="1.0224948" alpha="0.074999999999999997"/>
                <iidm:step r="0" x="0" g="0" b="0" rho="1.0224948" alpha="0.050000000000000003"/>
                <iidm:step r="0" x="0" g="0" b="0" rho="1.0224948" alpha="0.025000000000000001"/>
                <iidm:step r="0" x="0" g="0" b="0" rho="1.0224948" alpha="0"/>
                <iidm:step r="0" x="0" g="0" b="0" rho="1.0224948" alpha="-0.025000000000000001"/>
                <iidm:step r="0" x="0" g="0" b="0" rho="1.0224948" alpha="-0.050000000000000003"/>
                <iidm:step r="0" x="0" g="0" b="0" rho="1.0224948" alpha="-0.074999999999999997"/>
                <iidm:step r="0" x="0" g="0" b="0" rho="1.0224948" alpha="-0.10000000000000001"/>
                <iidm:step r="0" x="0" g="0" b="0" rho="1.0224948" alpha="-0.125"/>
                <iidm:step r="0" x="0" g="0" b="0" rho="1.0224948" alpha="-0.14999999999999999"/>
                <iidm:step r="0" x="0" g="0" b="0" rho="1.0224948" alpha="-0.17499999999999999"/>
                <iidm:step r="0" x="0" g="0" b="0" rho="1.0224948" alpha="-0.20000000000000001"/>
                <iidm:step r="0" x="0" g="0" b="0" rho="1.0224948" alpha="-0.22500000000000001"/>
                <iidm:step r="0" x="0" g="0" b="0" rho="1.0224948" alpha="-0.25"/>
                <iidm:step r="0" x="0" g="0" b="0" rho="1.0224948" alpha="-0.27500000000000002"/>
                <iidm:step r="0" x="0" g="0" b="0" rho="1.0224948" alpha="-0.29999999999999999"/>
            </iidm:phaseTapChanger>
        </iidm:twoWindingsTransformer>
        <iidm:twoWindingsTransformer id="_BUS____5-BUS____8-1_PT" name="BUS    5-BUS    8-1" r="0" x="10" g="0" b="0" ratedU1="69" ratedU2="400" bus1="_BUS____5_TN" connectableBus1="_BUS____5_TN" voltageLevelId1="_BUS____5_VL" bus2="_BUS____8_TN" connectableBus2="_BUS____8_TN" voltageLevelId2="_BUS____6_VL" p1="46.800300753679814" q1="0.24072994110716064" p2="-46.800300753679799" q2="-0.10576803297369156">
            <iidm:ratioTapChanger lowTapPosition="1" tapPosition="5" loadTapChangingCapabilities="false">
                <iidm:step r="0" x="0" g="0" b="0" rho="1.1111112000000001"/>
                <iidm:step r="0" x="0" g="0" b="0" rho="1.0875475999999999"/>
                <iidm:step r="0" x="0" g="0" b="0" rho="1.0649626999999999"/>
                <iidm:step r="0" x="0" g="0" b="0" rho="1.0432965999999999"/>
                <iidm:step r="0" x="0" g="0" b="0" rho="1.0224948"/>
                <iidm:step r="0" x="0" g="0" b="0" rho="1"/>
                <iidm:step r="0" x="0" g="0" b="0" rho="0.98039215999999996"/>
                <iidm:step r="0" x="0" g="0" b="0" rho="0.96153849999999996"/>
                <iidm:step r="0" x="0" g="0" b="0" rho="0.94339629999999997"/>
                <iidm:step r="0" x="0" g="0" b="0" rho="0.92592589999999997"/>
                <iidm:step r="0" x="0" g="0" b="0" rho="0.90909090000000004"/>
            </iidm:ratioTapChanger>
            <iidm:currentLimits1 permanentLimit="836.74000000000001"/>
            <iidm:currentLimits2 permanentLimit="4183.6999999999998"/>
        </iidm:twoWindingsTransformer>
    </iidm:substation>
    <iidm:line id="_BUS____1-BUS____5-1_AC" name="BUS    1-BUS    5-1" r="2.5723699999999998" x="10.6189" g1="0" b1="0.00051670000000000004" g2="0" b2="0.00051670000000000004" bus1="_BUS____1_TN" connectableBus1="_BUS____1_TN" voltageLevelId1="_BUS____1_VL" bus2="_BUS____5_TN" connectableBus2="_BUS____5_TN" voltageLevelId2="_BUS____5_VL" p1="105.57654724448059" q1="18.227397193416326" p2="-100.00473702592303" q2="-0.37735941377107879">
        <iidm:currentLimits1 permanentLimit="836.74000000000001"/>
    </iidm:line>
    <iidm:line id="_BUS____6-BUS___10-1_AC" name="BUS    6-BUS   10-1" r="0.5" x="10" g1="0" b1="0" g2="0" b2="0" bus1="_BUS____6_TN" connectableBus1="_BUS____6_TN" voltageLevelId1="_BUS____6_VL" bus2="_BUS___10_TN" connectableBus2="_BUS___10_TN" voltageLevelId2="_BUS___10_VL" p1="25.186863688110716" q1="0.059966216712278926" p2="-25.184909225636236" q2="-0.020876967222770142">
        <iidm:currentLimits1 permanentLimit="4183.6999999999998"/>
    </iidm:line>
    <iidm:line id="_BUS____8-BUS___10-1_AC" name="BUS    8-BUS   10-1" r="0.5" x="10" g1="0" b1="0" g2="0" b2="0" bus1="_BUS____8_TN" connectableBus1="_BUS____8_TN" voltageLevelId1="_BUS____6_VL" bus2="_BUS___10_TN" connectableBus2="_BUS___10_TN" voltageLevelId2="_BUS___10_VL" p1="23.400150376839811" q1="0.052884016481120788" p2="-23.39846335298806" q2="-0.019143539446152869">
        <iidm:currentLimits1 permanentLimit="4183.6999999999998"/>
    </iidm:line>
    <iidm:line id="_BUS____8-BUS___10-2_AC" name="BUS    8-BUS   10-2" r="0.5" x="10" g1="0" b1="0" g2="0" b2="0" bus1="_BUS____8_TN" connectableBus1="_BUS____8_TN" voltageLevelId1="_BUS____6_VL" bus2="_BUS___10_TN" connectableBus2="_BUS___10_TN" voltageLevelId2="_BUS___10_VL" p1="23.400150376839811" q1="0.052884016481120788" p2="-23.39846335298806" q2="-0.019143539446152869">
        <iidm:currentLimits1 permanentLimit="4183.6999999999998"/>
    </iidm:line>
    <iidm:line id="_BUS____7-BUS___10-2_AC" name="BUS    7-BUS   10-2" r="0.5" x="10" g1="0" b1="0" g2="0" b2="0" bus1="_BUS____7_TN" connectableBus1="_BUS____7_TN" voltageLevelId1="_BUS____6_VL" bus2="_BUS___10_TN" connectableBus2="_BUS___10_TN" voltageLevelId2="_BUS___10_VL" p1="28.017568013182043" q1="-0.010795383203167509" p2="-28.015149580036159" q2="0.059164046120800305">
        <iidm:currentLimits1 permanentLimit="4183.6999999999998"/>
    </iidm:line>
</iidm:network>
